
**** 01/08/25 01:53:45 ****** PSpice Lite (October 2012) ****** ID# 10813 ****

 ** Profile: "SCHEMATIC1-test"  [ C:\Users\luigi.santagada\Desktop\zener_best_practices-PSpiceFiles\1\zener_best_practices-PSpiceFile


 ****     CIRCUIT DESCRIPTION


******************************************************************************




** Creating circuit file "test.cir" 
** WARNING: THIS AUTOMATICALLY GENERATED FILE MAY BE OVERWRITTEN BY SUBSEQUENT SIMULATIONS

*Libraries: 
* Profile Libraries :
* Local Libraries :
* From [PSPICE NETLIST] section of C:\Users\luigi.santagada\AppData\Roaming\SPB_16.6\cdssetup\OrCAD_PSpice/16.6.0/PSpice.ini file:
.lib "nomd.lib" 

*Analysis directives: 
.TRAN  0 1000ns 0 
.OPTIONS ADVCONV
.PROBE64 V(alias(*)) I(alias(*)) W(alias(*)) D(alias(*)) NOISE(alias(*)) 
.INC "..\SCHEMATIC1.net" 



**** INCLUDING SCHEMATIC1.net ****
* source ZENER_BEST_PRACTICES
V_V6         N44214 0  
+SIN 12 2 0.5 0 0 0
R_R17         N44376 N44272  470 TC=0,0 
X_R18         N44376 N44448 0 POT PARAMS: SET=1 VALUE=100k
C_C2         0 N44376  0.1uF  TC=0,0 
X_U5         N44214 N44244 Sw_tOpen PARAMS: tOpen=5 ttran=1u Rclosed=0.01
+  Ropen=1Meg
X_U6         N444300 N44448 Sw_tOpen PARAMS: tOpen=5 ttran=1u Rclosed=0.01
+  Ropen=1Meg
D_D6         N44272 N44244 1N4740A 
D_D3-5V3         0 N444300 D1N4733 

**** RESUMING test.cir ****
.END

ERROR(ORPSIM-15113): Model 1N4740A used by D_D6 is undefined

ERROR(ORPSIM-15113): Model D1N4733 used by D_D3-5V3 is undefined
